Version 4
SHEET 1 1632 880
WIRE 160 -128 144 -128
WIRE 256 -128 240 -128
WIRE 720 -80 640 -80
WIRE 832 -80 800 -80
WIRE 880 -80 832 -80
WIRE 976 -80 944 -80
WIRE 48 -32 -32 -32
WIRE 144 -32 144 -128
WIRE 144 -32 128 -32
WIRE 224 -32 144 -32
WIRE 336 -16 336 -128
WIRE 336 -16 304 -16
WIRE 352 -16 336 -16
WIRE 448 -16 432 -16
WIRE 224 0 192 0
WIRE 1152 0 1136 0
WIRE 1264 0 1216 0
WIRE -496 16 -496 -16
WIRE -192 32 -240 32
WIRE -96 32 -112 32
WIRE 720 32 672 32
WIRE 832 32 832 -80
WIRE 832 32 800 32
WIRE 192 48 192 0
WIRE -352 96 -400 96
WIRE -240 96 -240 32
WIRE -240 96 -272 96
WIRE 256 96 176 96
WIRE 336 96 320 96
WIRE 448 96 448 -16
WIRE 512 96 448 96
WIRE 608 96 592 96
WIRE 832 96 832 32
WIRE 864 96 832 96
WIRE 976 112 976 -80
WIRE 976 112 944 112
WIRE 1024 112 976 112
WIRE 1136 112 1136 0
WIRE 1136 112 1104 112
WIRE 1168 112 1136 112
WIRE 832 128 832 96
WIRE 832 128 800 128
WIRE 864 128 848 128
WIRE 1264 128 1264 0
WIRE 1264 128 1248 128
WIRE 1344 128 1264 128
WIRE 1392 128 1344 128
WIRE 1168 144 1136 144
WIRE -240 176 -240 96
WIRE -208 176 -240 176
WIRE 848 176 848 128
WIRE -96 192 -96 32
WIRE -96 192 -128 192
WIRE -32 192 -32 -32
WIRE -32 192 -96 192
WIRE -16 192 -32 192
WIRE 80 192 64 192
WIRE 176 192 176 96
WIRE 176 192 160 192
WIRE 224 192 176 192
WIRE -560 208 -608 208
WIRE -352 208 -480 208
WIRE -240 208 -272 208
WIRE -208 208 -240 208
WIRE 336 208 336 96
WIRE 336 208 304 208
WIRE 352 208 336 208
WIRE 448 208 448 96
WIRE 448 208 432 208
WIRE 512 208 448 208
WIRE 224 224 192 224
WIRE 608 224 608 96
WIRE 608 224 592 224
WIRE 640 224 640 -80
WIRE 640 224 608 224
WIRE 720 224 720 128
WIRE 976 224 976 112
WIRE 976 224 720 224
WIRE 1136 224 1136 144
WIRE 512 240 480 240
WIRE -608 256 -608 208
WIRE -240 272 -240 208
WIRE 192 272 192 224
WIRE 848 272 832 272
WIRE 1008 272 928 272
WIRE 480 288 480 240
WIRE 160 352 144 352
WIRE 256 352 240 352
WIRE 1008 352 1008 272
WIRE 1008 352 976 352
WIRE 1024 352 1008 352
WIRE 1264 352 1264 128
WIRE 1264 352 1104 352
WIRE 672 368 672 32
WIRE 832 368 832 272
WIRE 832 368 672 368
WIRE 896 368 832 368
WIRE 1008 384 976 384
WIRE -240 400 -240 352
WIRE 1008 448 1008 384
WIRE -496 464 -496 432
WIRE -32 464 -32 192
WIRE 48 464 -32 464
WIRE 144 464 144 352
WIRE 144 464 112 464
WIRE 224 464 144 464
WIRE 336 480 336 352
WIRE 336 480 304 480
WIRE 352 480 336 480
WIRE 448 480 448 208
WIRE 448 480 432 480
WIRE 224 496 192 496
WIRE 192 544 192 496
WIRE -400 608 -400 96
WIRE 1344 608 1344 128
WIRE 1344 608 -400 608
FLAG -240 400 0
FLAG 192 48 0
FLAG 192 272 0
FLAG 192 544 0
FLAG 480 288 0
FLAG 1008 448 0
FLAG 848 176 0
FLAG 1136 224 0
FLAG -608 256 0
FLAG -496 16 0
FLAG -496 464 0
FLAG -496 -96 V+
FLAG 272 192 V+
FLAG 272 464 V+
FLAG 272 -32 V+
FLAG -160 176 V+
FLAG 560 208 V+
FLAG 912 96 V+
FLAG 928 352 V+
FLAG 1216 112 V+
FLAG -160 208 V-
FLAG 272 496 V-
FLAG 272 224 V-
FLAG 272 0 V-
FLAG 560 240 V-
FLAG 912 128 V-
FLAG 928 384 V-
FLAG 1216 144 V-
FLAG -496 352 V-
FLAG 1392 128 OUTPUT
SYMBOL AutoGenerated\\LMX24_LM2902 -160 192 R0
WINDOW 0 -24 -45 Bottom 0
WINDOW 3 -17 -6 Top 0
SYMATTR InstName U1
SYMATTR Value LMX24_LM2902
SYMBOL AutoGenerated\\LMX24_LM2902 272 208 R0
WINDOW 0 -25 -51 Bottom 0
SYMATTR InstName U2
SYMATTR Value LMX24_LM2902
SYMBOL AutoGenerated\\LMX24_LM2902 272 -16 R0
WINDOW 0 -37 -26 Bottom 0
SYMATTR InstName U3
SYMATTR Value LMX24_LM2902
SYMBOL AutoGenerated\\LMX24_LM2902 272 480 R0
WINDOW 0 -37 -55 Bottom 0
SYMATTR InstName U4
SYMATTR Value LMX24_LM2902
SYMBOL AutoGenerated\\LMX24_LM2902 560 224 R0
WINDOW 0 -18 -42 Bottom 0
SYMATTR InstName U5
SYMATTR Value LMX24_LM2902
SYMBOL AutoGenerated\\LMX24_LM2902 912 112 R0
WINDOW 3 -13 -5 Top 0
WINDOW 0 -38 -50 Bottom 0
SYMATTR Value LMX24_LM2902
SYMATTR InstName U6
SYMBOL AutoGenerated\\LMX24_LM2902 1216 128 R0
WINDOW 0 -35 -25 Bottom 0
SYMATTR InstName U7
SYMATTR Value LMX24_LM2902
SYMBOL AutoGenerated\\LMX24_LM2902 928 368 M0
WINDOW 0 -39 -46 Bottom 0
SYMATTR InstName U8
SYMATTR Value LMX24_LM2902
SYMBOL res -256 256 R0
SYMATTR InstName R1
SYMATTR Value 10k
SYMBOL res -256 80 R90
WINDOW 0 0 56 VBottom 2
WINDOW 3 32 56 VTop 2
SYMATTR InstName R2
SYMATTR Value 10k
SYMBOL res -256 192 R90
WINDOW 0 0 56 VBottom 2
WINDOW 3 32 56 VTop 2
SYMATTR InstName R3
SYMATTR Value 10k
SYMBOL res -96 16 R90
WINDOW 0 0 56 VBottom 2
WINDOW 3 32 56 VTop 2
SYMATTR InstName R4
SYMATTR Value 10k
SYMBOL res 80 176 R90
WINDOW 0 0 56 VBottom 2
WINDOW 3 32 56 VTop 2
SYMATTR InstName R5
SYMATTR Value 10k
SYMBOL res 144 -48 R90
WINDOW 0 0 56 VBottom 2
WINDOW 3 32 56 VTop 2
SYMATTR InstName R6
SYMATTR Value 1k
SYMBOL res 256 -144 R90
WINDOW 0 0 56 VBottom 2
WINDOW 3 32 56 VTop 2
SYMATTR InstName R7
SYMATTR Value 10k
SYMBOL res 448 -32 R90
WINDOW 0 0 56 VBottom 2
WINDOW 3 32 56 VTop 2
SYMATTR InstName R8
SYMATTR Value 10k
SYMBOL res 448 192 R90
WINDOW 0 0 56 VBottom 2
WINDOW 3 32 56 VTop 2
SYMATTR InstName R9
SYMATTR Value 10k
SYMBOL res 448 464 R90
WINDOW 0 0 56 VBottom 2
WINDOW 3 32 56 VTop 2
SYMATTR InstName R10
SYMATTR Value 10k
SYMBOL res 608 80 R90
WINDOW 0 0 56 VBottom 2
WINDOW 3 32 56 VTop 2
SYMATTR InstName R11
SYMATTR Value 10k
SYMBOL res 816 16 R90
WINDOW 0 0 56 VBottom 2
WINDOW 3 32 56 VTop 2
SYMATTR InstName R12
SYMATTR Value 5k
SYMBOL res 816 -96 R90
WINDOW 0 0 56 VBottom 2
WINDOW 3 32 56 VTop 2
SYMATTR InstName R13
SYMATTR Value 10k
SYMBOL res 816 112 R90
WINDOW 0 0 56 VBottom 2
WINDOW 3 32 56 VTop 2
SYMATTR InstName R14
SYMATTR Value 10k
SYMBOL res 944 256 R90
WINDOW 0 0 56 VBottom 2
WINDOW 3 32 56 VTop 2
SYMATTR InstName R15
SYMATTR Value 10k
SYMBOL res 1120 336 R90
WINDOW 0 0 56 VBottom 2
WINDOW 3 32 56 VTop 2
SYMATTR InstName R16
SYMATTR Value 10k
SYMBOL res 1120 96 R90
WINDOW 0 0 56 VBottom 2
WINDOW 3 32 56 VTop 2
SYMATTR InstName R17
SYMATTR Value 100k
SYMBOL cap 112 448 R90
WINDOW 0 0 32 VBottom 2
WINDOW 3 32 32 VTop 2
SYMATTR InstName C1
SYMATTR Value 20µ
SYMBOL cap 320 80 R90
WINDOW 0 0 32 VBottom 2
WINDOW 3 33 24 VTop 2
SYMATTR InstName C2
SYMATTR Value 1µ
SYMBOL cap 944 -96 R90
WINDOW 0 0 32 VBottom 2
WINDOW 3 32 32 VTop 2
SYMATTR InstName C3
SYMATTR Value 10µ
SYMBOL cap 1216 -16 R90
WINDOW 0 0 32 VBottom 2
WINDOW 3 32 32 VTop 2
SYMATTR InstName C4
SYMATTR Value 10µ
SYMBOL res 256 336 R90
WINDOW 0 0 56 VBottom 2
WINDOW 3 32 56 VTop 2
SYMATTR InstName R18
SYMATTR Value 10k
SYMBOL voltage -496 -112 R0
WINDOW 0 -55 16 Left 2
WINDOW 123 0 0 Left 0
WINDOW 39 0 0 Left 0
SYMATTR InstName V1
SYMATTR Value 12
SYMBOL voltage -496 448 M180
WINDOW 0 24 96 Left 2
WINDOW 3 24 16 Left 2
WINDOW 123 0 0 Left 0
WINDOW 39 0 0 Left 0
SYMATTR InstName V2
SYMATTR Value 12
SYMBOL voltage -464 208 R90
WINDOW 0 -32 56 VBottom 2
WINDOW 3 38 66 VTop 2
WINDOW 123 0 0 Left 0
WINDOW 39 0 0 Left 0
SYMATTR InstName V3
SYMATTR Value PWL(0.1 0 0.101 3)
SYMBOL res 352 -144 R90
WINDOW 0 0 56 VBottom 2
WINDOW 3 32 56 VTop 2
SYMATTR InstName R19
SYMATTR Value 50k
SYMBOL res 176 176 R90
WINDOW 0 0 56 VBottom 2
WINDOW 3 32 56 VTop 2
SYMATTR InstName R20
SYMATTR Value 50k
SYMBOL res 352 336 R90
WINDOW 0 0 56 VBottom 2
WINDOW 3 32 56 VTop 2
SYMATTR InstName R21
SYMATTR Value 20k
TEXT 888 560 Left 2 !.inc LMX24_LM2902.lib
TEXT -648 584 Left 2 !.tran 5
TEXT -368 -128 Left 2 ;Error generation circuit
TEXT 144 -216 Left 2 ;PID controller circuit
TEXT 520 -160 Left 2 ;Circuit Model of a Mass-Spring-Damper Mechanical System
TEXT -480 192 Left 2 ;INPUT
